Version 4
SHEET 1 2120 680
WIRE 272 -32 176 -32
WIRE 512 -32 272 -32
WIRE 704 -32 512 -32
WIRE 784 -32 704 -32
WIRE 512 0 512 -32
WIRE 512 0 432 0
WIRE 704 0 704 -32
WIRE 784 0 704 0
WIRE 608 16 560 16
WIRE 656 16 608 16
WIRE 432 48 432 0
WIRE 512 48 432 48
WIRE 784 48 784 0
WIRE 784 48 704 48
WIRE 272 128 272 -32
WIRE 512 128 512 96
WIRE 608 128 608 16
WIRE 608 128 512 128
WIRE 704 144 704 96
WIRE 512 176 512 128
WIRE 704 176 704 144
WIRE 592 224 512 224
WIRE 704 224 624 224
WIRE 464 256 448 256
WIRE 768 256 752 256
WIRE 592 272 592 224
WIRE 592 272 512 272
WIRE 624 272 624 224
WIRE 704 272 624 272
WIRE 272 288 272 208
WIRE 512 320 512 272
WIRE 608 320 512 320
WIRE 704 320 704 272
WIRE 704 320 608 320
WIRE 896 336 896 304
WIRE 992 336 992 304
WIRE 272 352 272 288
WIRE 368 352 272 352
WIRE 272 368 272 352
WIRE 608 368 608 320
WIRE 272 416 192 416
WIRE 688 416 608 416
WIRE 368 448 368 352
WIRE 368 448 320 448
WIRE 560 448 368 448
WIRE 896 448 896 416
WIRE 992 448 992 416
WIRE 192 464 192 416
WIRE 272 464 192 464
WIRE 688 464 688 416
WIRE 688 464 608 464
WIRE 272 496 272 464
WIRE 272 496 176 496
WIRE 608 496 608 464
WIRE 608 496 272 496
WIRE 784 496 608 496
FLAG 784 -32 VDD
FLAG 896 448 0
FLAG 896 304 VDD
FLAG 704 144 V_out
FLAG 448 256 Vin
FLAG 768 256 Vin
FLAG 784 496 VSS
FLAG 992 448 0
FLAG 992 304 VSS
FLAG 368 448 VB
FLAG 1152 416 0
FLAG 1152 336 Vin
FLAG 608 368 Tail
FLAG 272 288 Ref
SYMBOL nmos4 752 176 M0
SYMATTR InstName T2
SYMATTR Value cmosn
SYMATTR Value2 l=0.13u w=10u
SYMBOL nmos4 464 176 R0
SYMATTR InstName T1
SYMATTR Value cmosn
SYMATTR Value2 l=0.13u w=10u
SYMBOL pmos4 656 96 M180
SYMATTR InstName T4
SYMATTR Value cmosp
SYMATTR Value2 l=0.13u w=30u
SYMBOL pmos4 560 96 R180
SYMATTR InstName T3
SYMATTR Value cmosp
SYMATTR Value2 l=0.13u w=30u
SYMBOL voltage 896 320 R0
SYMATTR InstName VDD
SYMATTR Value 1.2V
SYMBOL nmos4 560 368 R0
SYMATTR InstName T5
SYMATTR Value cmosn
SYMATTR Value2 l=0.13u w=10u
SYMBOL nmos4 320 368 M0
SYMATTR InstName TB
SYMATTR Value cmosn
SYMATTR Value2 l=0.13u w=10u
SYMBOL res 256 112 R0
SYMATTR InstName RB
SYMATTR Value 250
SYMBOL voltage 992 320 R0
SYMATTR InstName VSS
SYMATTR Value 0V
SYMBOL voltage 1152 320 R0
WINDOW 123 24 124 Left 2
WINDOW 39 0 0 Left 0
SYMATTR Value2 AC 1
SYMATTR InstName V1
SYMATTR Value .6
TEXT 232 616 Left 2 !.lib cmos_013_bsim4.mod
TEXT 232 576 Left 2 !;tf V_out Vin
TEXT 176 640 Left 2 !*.ac dec 100 10 4000000
