Version 4
SHEET 1 1308 680
WIRE -688 -32 -784 -32
WIRE -448 -32 -688 -32
WIRE -256 -32 -448 -32
WIRE -176 -32 -256 -32
WIRE 272 -32 176 -32
WIRE 512 -32 272 -32
WIRE 704 -32 512 -32
WIRE 784 -32 704 -32
WIRE -448 0 -448 -32
WIRE -448 0 -528 0
WIRE -256 0 -256 -32
WIRE -176 0 -256 0
WIRE 512 0 512 -32
WIRE 512 0 432 0
WIRE 704 0 704 -32
WIRE 784 0 704 0
WIRE -352 16 -400 16
WIRE -304 16 -352 16
WIRE 608 16 560 16
WIRE 656 16 608 16
WIRE -528 48 -528 0
WIRE -448 48 -528 48
WIRE -176 48 -176 0
WIRE -176 48 -256 48
WIRE 432 48 432 0
WIRE 512 48 432 48
WIRE 784 48 784 0
WIRE 784 48 704 48
WIRE -688 128 -688 -32
WIRE -448 128 -448 96
WIRE -352 128 -352 16
WIRE -352 128 -448 128
WIRE -256 128 -256 96
WIRE -208 128 -256 128
WIRE -176 128 -208 128
WIRE 272 128 272 -32
WIRE 512 128 512 96
WIRE 608 128 608 16
WIRE 608 128 512 128
WIRE 704 128 704 96
WIRE 784 128 704 128
WIRE 880 128 848 128
WIRE 704 144 704 128
WIRE 880 160 880 128
WIRE -448 176 -448 128
WIRE -256 176 -256 128
WIRE 512 176 512 128
WIRE 704 176 704 144
WIRE -368 224 -448 224
WIRE -256 224 -336 224
WIRE 592 224 512 224
WIRE 704 224 624 224
WIRE -496 256 -528 256
WIRE -192 256 -208 256
WIRE -176 256 -176 128
WIRE -176 256 -192 256
WIRE 464 256 448 256
WIRE 768 256 752 256
WIRE -528 272 -528 256
WIRE -368 272 -368 224
WIRE -368 272 -448 272
WIRE -336 272 -336 224
WIRE -256 272 -336 272
WIRE 592 272 592 224
WIRE 592 272 512 272
WIRE 624 272 624 224
WIRE 704 272 624 272
WIRE -448 320 -448 272
WIRE -352 320 -448 320
WIRE -256 320 -256 272
WIRE -256 320 -352 320
WIRE 512 320 512 272
WIRE 608 320 512 320
WIRE 704 320 704 272
WIRE 704 320 608 320
WIRE 896 336 896 304
WIRE 992 336 992 304
WIRE -688 352 -688 208
WIRE -592 352 -688 352
WIRE 272 352 272 208
WIRE 368 352 272 352
WIRE -688 368 -688 352
WIRE -352 368 -352 320
WIRE -176 368 -176 336
WIRE 272 368 272 352
WIRE 608 368 608 320
WIRE -688 416 -768 416
WIRE -272 416 -352 416
WIRE 272 416 192 416
WIRE 688 416 608 416
WIRE -592 448 -592 352
WIRE -592 448 -640 448
WIRE -400 448 -592 448
WIRE 368 448 368 352
WIRE 368 448 320 448
WIRE 560 448 368 448
WIRE 896 448 896 416
WIRE 992 448 992 416
WIRE -768 464 -768 416
WIRE -688 464 -768 464
WIRE -272 464 -272 416
WIRE -272 464 -352 464
WIRE 192 464 192 416
WIRE 272 464 192 464
WIRE 688 464 688 416
WIRE 688 464 608 464
WIRE -176 480 -176 448
WIRE -688 496 -688 464
WIRE -528 496 -688 496
WIRE -352 496 -352 464
WIRE -352 496 -528 496
WIRE 272 496 272 464
WIRE 272 496 176 496
WIRE 608 496 608 464
WIRE 608 496 272 496
WIRE 784 496 608 496
WIRE -528 528 -528 496
FLAG 784 -32 VDD
FLAG 896 448 0
FLAG 896 304 VDD
FLAG 704 144 V_out
FLAG 448 256 Vi+
FLAG 768 256 Vi-
FLAG 784 496 VSS
FLAG 992 448 0
FLAG 992 304 VSS
FLAG 368 448 VB
FLAG -176 -32 Vp
FLAG -176 480 0
FLAG -176 336 Vp
FLAG -208 128 V_out2
FLAG -592 448 VB
FLAG -528 528 0
FLAG -528 272 0
FLAG -528 256 Vi+_t
FLAG -192 256 Vi-_t
FLAG 880 160 0
SYMBOL nmos4 752 176 M0
SYMATTR InstName T2
SYMATTR Value cmosn
SYMATTR Value2 l=0.13u w=10u
SYMBOL nmos4 464 176 R0
SYMATTR InstName T1
SYMATTR Value cmosn
SYMATTR Value2 l=0.13u w=10u
SYMBOL pmos4 656 96 M180
SYMATTR InstName T4
SYMATTR Value cmosp
SYMATTR Value2 l=0.13u w=30u
SYMBOL pmos4 560 96 R180
SYMATTR InstName T3
SYMATTR Value cmosp
SYMATTR Value2 l=0.13u w=30u
SYMBOL voltage 896 320 R0
SYMATTR InstName VDD
SYMATTR Value 1.2V
SYMBOL nmos4 560 368 R0
SYMATTR InstName T5
SYMATTR Value cmosn
SYMATTR Value2 l=0.13u w=10u
SYMBOL nmos4 320 368 M0
SYMATTR InstName TB
SYMATTR Value cmosn
SYMATTR Value2 l=0.13u w=10u
SYMBOL res 256 112 R0
SYMATTR InstName RB
SYMATTR Value 100
SYMBOL voltage 992 320 R0
SYMATTR InstName VSS
SYMATTR Value 0V
SYMBOL nmos4 -208 176 M0
SYMATTR InstName T6
SYMATTR Value cmosn
SYMATTR Value2 l=0.13u w=10u
SYMBOL nmos4 -496 176 R0
SYMATTR InstName T7
SYMATTR Value cmosn
SYMATTR Value2 l=0.13u w=10u
SYMBOL pmos4 -304 96 M180
SYMATTR InstName T8
SYMATTR Value cmosp
SYMATTR Value2 l=0.13u w=30u
SYMBOL pmos4 -400 96 R180
SYMATTR InstName T9
SYMATTR Value cmosp
SYMATTR Value2 l=0.13u w=30u
SYMBOL voltage -176 352 R0
WINDOW 123 0 0 Left 0
WINDOW 39 0 0 Left 0
SYMATTR InstName Vp
SYMATTR Value AC 1
SYMBOL nmos4 -400 368 R0
SYMATTR InstName T10
SYMATTR Value cmosn
SYMATTR Value2 l=0.13u w=10u
SYMBOL nmos4 -640 368 M0
SYMATTR InstName TB1
SYMATTR Value cmosn
SYMATTR Value2 l=0.13u w=10u
SYMBOL res -704 112 R0
WINDOW 3 36 68 Left 2
SYMATTR Value 100
SYMATTR InstName RB1
SYMBOL cap 848 112 R90
WINDOW 0 0 32 VBottom 2
WINDOW 3 32 32 VTop 2
SYMATTR InstName C1
SYMATTR Value 5p
TEXT 232 616 Left 2 !.include cmos_013_bsim4.mod
TEXT 232 576 Left 2 !;tf V_out Vi+
TEXT -696 576 Left 2 !*Ap = V_out2 / Vp\n*Ad = V_out / Vi+\n*PSRR = |Ad / Ap| =(V(v_out)/V(vi+))/(V(vi-_t)/V(vp))
TEXT -688 664 Left 2 !.ac dec 100 10 100Meg
